Circuit: * C:\Users\prajwal\Documents\LTspiceXVII\Current Shunt feedback amplifier.asc

Direct Newton iteration for .op point succeeded.

Date: Sun Mar 28 22:35:29 2021
Total elapsed time: 0.112 seconds.

tnom = 27
temp = 27
method = trap
totiter = 7
traniter = 0
tranpoints = 0
accept = 0
rejected = 0
matrix size = 21
fillins = 10
solver = Normal
Matrix Compiler1:      99 opcodes
Matrix Compiler2: 1.87 KB object code size
