Circuit: * C:\Users\prajwal\Documents\LTspiceXVII\Draft6.asc

Direct Newton iteration for .op point succeeded.

Date: Sun Mar 28 16:19:31 2021
Total elapsed time: 0.278 seconds.

tnom = 27
temp = 27
method = modified trap
totiter = 2091
traniter = 2083
tranpoints = 1042
accept = 1042
rejected = 0
matrix size = 10
fillins = 0
solver = Normal
Matrix Compiler1: 578 bytes object code size  0.3/0.2/[0.2]
Matrix Compiler2: off  [0.2]/0.3/0.5

