Circuit: * C:\Users\prajwal\Documents\LTspiceXVII\Draft4.asc

Direct Newton iteration for .op point succeeded.

Date: Sun Mar 28 14:37:50 2021
Total elapsed time: 0.072 seconds.

tnom = 27
temp = 27
method = modified trap
totiter = 3017
traniter = 3011
tranpoints = 1227
accept = 1128
rejected = 99
matrix size = 11
fillins = 4
solver = Normal
Matrix Compiler1: 868 bytes object code size  0.3/0.2/[0.2]
Matrix Compiler2: off  [0.2]/0.3/0.4

