Circuit: * C:\Users\prajwal\Documents\LTspiceXVII\Draft3.asc

Direct Newton iteration for .op point succeeded.

Date: Sun Mar 28 13:59:15 2021
Total elapsed time: 0.054 seconds.

tnom = 27
temp = 27
method = trap
totiter = 12
traniter = 0
tranpoints = 0
accept = 0
rejected = 0
matrix size = 16
fillins = 2
solver = Normal
Matrix Compiler1:      52 opcodes
Matrix Compiler2: 1.22 KB object code size
