Circuit: * C:\Users\prajwal\Documents\LTspiceXVII\Draft5.asc

Direct Newton iteration for .op point succeeded.

Date: Sun Mar 28 15:50:11 2021
Total elapsed time: 0.163 seconds.

tnom = 27
temp = 27
method = modified trap
totiter = 2107
traniter = 2100
tranpoints = 1046
accept = 1045
rejected = 1
matrix size = 21
fillins = 10
solver = Normal
Matrix Compiler1: 1.75 KB object code size  0.6/0.5/[0.4]
Matrix Compiler2: off  [0.4]/0.8/1.1

