Circuit: * C:\Users\prajwal\Documents\LTspiceXVII\Draft9.asc


Date: Thu Mar 11 14:57:01 2021
Total elapsed time: 0.172 seconds.

tnom = 27
temp = 27
method = trap
totiter = 88
traniter = 0
tranpoints = 0
accept = 0
rejected = 0
matrix size = 13
fillins = 4
solver = Normal
Matrix Compiler1: 644 bytes object code size
Matrix Compiler2: 1.17 KB object code size
