Circuit: * C:\Users\prajwal\Documents\LTspiceXVII\Draft2.asc

Direct Newton iteration for .op point succeeded.

Date: Sun Mar 28 13:11:41 2021
Total elapsed time: 0.108 seconds.

tnom = 27
temp = 27
method = modified trap
totiter = 2091
traniter = 2084
tranpoints = 1042
accept = 1042
rejected = 0
matrix size = 20
fillins = 0
solver = Normal
Matrix Compiler1: 1.19 KB object code size  0.5/0.4/[0.3]
Matrix Compiler2: off  [0.4]/0.7/1.3

