Circuit: * C:\Users\prajwal\Documents\LTspiceXVII\Hysteresis comparator.asc

Direct Newton iteration for .op point succeeded.

Date: Tue Mar 23 00:04:53 2021
Total elapsed time: 0.264 seconds.

tnom = 27
temp = 27
method = modified trap
totiter = 4278
traniter = 4262
tranpoints = 1542
accept = 1407
rejected = 135
matrix size = 15
fillins = 5
solver = Normal
Matrix Compiler1: 820 bytes object code size  0.5/0.3/[0.2]
Matrix Compiler2: off  [0.3]/0.6/1.3

