Circuit: * C:\Users\prajwal\Documents\LTspiceXVII\Oscillator.asc

Direct Newton iteration for .op point succeeded.

Date: Tue Mar 23 19:25:29 2021
Total elapsed time: 5.415 seconds.

tnom = 27
temp = 27
method = modified trap
totiter = 40179
traniter = 40150
tranpoints = 11256
accept = 8659
rejected = 2597
matrix size = 14
fillins = 10
solver = Normal
Matrix Compiler1:      63 opcodes  0.4/[0.3]/803.0
Matrix Compiler2: off  [0.2]/0.5/2.9

