Circuit: * C:\Users\prajwal\Documents\LTspiceXVII\Single Stage BJT Ampr.asc

Warning: Multiple definitions of model "2n2222" Type: BJT
WARNING: Node VOUT is floating.

WARNING: Less than two connections to node VOUT.  This node is used by C2.
Direct Newton iteration for .op point succeeded.

Date: Fri Mar 05 16:55:28 2021
Total elapsed time: 0.155 seconds.

tnom = 27
temp = 27
method = modified trap
totiter = 2124
traniter = 2118
tranpoints = 1050
accept = 1048
rejected = 2
matrix size = 8
fillins = 0
solver = Normal
Matrix Compiler1: 380 bytes object code size  0.2/0.2/[0.1]
Matrix Compiler2: off  [0.2]/0.3/0.4

