Circuit: * C:\Users\prajwal\Documents\LTspiceXVII\Single Stage BJT Ampr for impedance.asc

Warning: Multiple definitions of model "2n2222" Type: BJT
Warning: Multiple definitions of model "2n2222" Type: BJT
WARNING: Node N003 is floating.

WARNING: Less than two connections to node N003.  This node is used by C1.
Direct Newton iteration for .op point succeeded.

Date: Sun Mar 07 00:21:43 2021
Total elapsed time: 0.103 seconds.

tnom = 27
temp = 27
method = trap
totiter = 6
traniter = 0
tranpoints = 0
accept = 0
rejected = 0
matrix size = 7
fillins = 0
solver = Normal
Matrix Compiler1:      20 opcodes
Matrix Compiler2: 535 bytes object code size
