Circuit: * C:\Users\prajwal\Documents\LTspiceXVII\TP1.asc

Direct Newton iteration for .op point succeeded.

Date: Tue Mar 23 19:43:07 2021
Total elapsed time: 0.100 seconds.

tnom = 27
temp = 27
method = trap
totiter = 17
traniter = 0
tranpoints = 0
accept = 0
rejected = 0
matrix size = 13
fillins = 5
solver = Normal
Matrix Compiler1:      39 opcodes
Matrix Compiler2: 1.18 KB object code size
