Circuit: * C:\Users\prajwal\Documents\LTspiceXVII\TP2.asc

Direct Newton iteration for .op point succeeded.

Date: Tue Mar 23 19:34:10 2021
Total elapsed time: 0.116 seconds.

tnom = 27
temp = 27
method = trap
totiter = 11
traniter = 0
tranpoints = 0
accept = 0
rejected = 0
matrix size = 13
fillins = 1
solver = Normal
Matrix Compiler1:      39 opcodes
Matrix Compiler2: 1.19 KB object code size
