Circuit: * C:\Users\prajwal\Documents\LTspiceXVII\Two stage RC coupled amplifier.asc

Direct Newton iteration for .op point succeeded.

Date: Sun Mar 28 22:25:46 2021
Total elapsed time: 0.123 seconds.

tnom = 27
temp = 27
method = trap
totiter = 7
traniter = 0
tranpoints = 0
accept = 0
rejected = 0
matrix size = 20
fillins = 0
solver = Normal
Matrix Compiler1:      70 opcodes
Matrix Compiler2: 1.60 KB object code size
