Circuit: * C:\Users\prajwal\Documents\LTspiceXVII\Voltage Series Feedback amplifier.asc

Direct Newton iteration for .op point succeeded.

Date: Sun Mar 28 22:32:52 2021
Total elapsed time: 0.087 seconds.

tnom = 27
temp = 27
method = trap
totiter = 8
traniter = 0
tranpoints = 0
accept = 0
rejected = 0
matrix size = 10
fillins = 0
solver = Normal
Matrix Compiler1:      31 opcodes
Matrix Compiler2: 768 bytes object code size
