Circuit: * C:\Users\prajwal\Documents\LTspiceXVII\Wein Bridge.asc

Direct Newton iteration for .op point succeeded.

Date: Tue Mar 23 00:08:34 2021
Total elapsed time: 0.561 seconds.

tnom = 27
temp = 27
method = modified trap
totiter = 32165
traniter = 32148
tranpoints = 10664
accept = 7680
rejected = 2984
matrix size = 13
fillins = 12
solver = Normal
Matrix Compiler1: 1.12 KB object code size  0.6/0.3/[0.2]
Matrix Compiler2: off  [0.3]/0.5/1.4

